Circuit: * D:\Google Drive\Mestrado\Instrumentação\Instrumentação-Alunos\Trabalhos de Alunos\Guilherme\Projeto Final\simulations\ltspice\AnalogRogowskiSignalProc.asc

Direct Newton iteration failed to find .op point.  (Use ".option noopiter" to skip.)
Starting Gmin stepping
Increasing initial diagonal Gmin to 100
Increasing initial diagonal Gmin to 1000
Gmin = 1000
Gmin = 107.374
Gmin = 11.5292
Gmin = 1.23794
vernier = 0.5
vernier = 0.25
vernier = 0.125
Gmin = 0.999885
vernier = 0.0625
vernier = 0.03125
vernier = 0.015625
vernier = 0.0078125
Gmin = 1.01125
vernier = 0.00390625
vernier = 0.00195313
Gmin = 1.00633
vernier = 0.000976563
vernier = 0.00130208
Gmin = 1.00379
vernier = 0.000651042
vernier = 0.000868055
vernier = 0.000434028
Gmin = 1.00309
vernier = 0.000578703
vernier = 0.000434027
Gmin = 0
Gmin stepping failed

Starting source stepping with srcstepmethod=0
Source Step = 3.0303%
Source Step = 33.3333%
Source Step = 63.6364%
Source Step = 93.9394%
Source stepping succeeded in finding the operating point.


Date: Thu Jul 25 01:20:06 2019
Total elapsed time: 18.411 seconds.

tnom = 27
temp = 27
method = modified trap
totiter = 92967
traniter = 88278
tranpoints = 44140
accept = 44140
rejected = 0
matrix size = 290
fillins = 1221
solver = Normal
Thread vector: 96.1/74.4[4] 49.5/16.9[4] 19.3/11.0[4] 3.5/5.2[1]  2592/500
Matrix Compiler1: 130.10 KB object code size  69.7/46.9/[16.5]
Matrix Compiler2: 46.56 KB object code size  17.4/20.7/[6.2]


