Circuit: * D:\Google Drive\Mestrado\Instrumentação\Instrumentação-Alunos\Trabalhos de Alunos\Guilherme\Projeto Final\simulations\ltspice\AnalogRogowskiSignalProc.asc

Wave file v1: channel 2 requested, max is 0
Direct Newton iteration failed to find .op point.  (Use ".option noopiter" to skip.)
Starting Gmin stepping
Increasing initial diagonal Gmin to 100
Increasing initial diagonal Gmin to 1000
Gmin = 1000
Gmin = 107.374
Gmin = 11.5292
Gmin = 1.23794
vernier = 0.5
vernier = 0.25
vernier = 0.125
Gmin = 0.999885
vernier = 0.0625
vernier = 0.03125
vernier = 0.015625
vernier = 0.0078125
Gmin = 1.00928
vernier = 0.00390625
vernier = 0.00195313
Gmin = 1.00339
vernier = 0.00260417
vernier = 0.00130208
vernier = 0.000651042
Gmin = 1.00111
vernier = 0.000488281
Gmin = 0
Gmin stepping failed

Starting source stepping with srcstepmethod=0
Source Step = 3.0303%
Source Step = 33.3333%
Source Step = 63.6364%
Source Step = 93.9394%
Source stepping succeeded in finding the operating point.


Date: Thu Jun 27 21:57:01 2019
Total elapsed time: 60.998 seconds.

tnom = 27
temp = 27
method = modified trap
totiter = 441212
traniter = 437370
tranpoints = 117467
accept = 100743
rejected = 16724
matrix size = 358
fillins = 1400
solver = Normal
Thread vector: 94.6/51.1[4] 57.1/29.2[4] 15.8/11.3[4] 3.7/6.5[1]  2592/500
Matrix Compiler1: 160.02 KB object code size  83.3/51.9/[20.6]
Matrix Compiler2: 54.89 KB object code size  19.1/25.7/[6.5]


