Circuit: * D:\Google Drive\Mestrado\Instrumentação\Instrumentação-Alunos\Trabalhos de Alunos\Guilherme\Projeto Final\simulations\ltspice\MC_DC_AnalogRogowskiSignalProc.asc

.step run=1
Direct Newton iteration failed to find .op point.  (Use ".option noopiter" to skip.)
Starting Gmin stepping
Increasing initial diagonal Gmin to 100
Gmin = 100
Gmin = 10.7374
Gmin = 1.15292
Gmin = 0.123794
Gmin = 0.0132923
Gmin = 0.00142725
Gmin = 0.00015325
Gmin = 1.6455e-005
Gmin = 1.76685e-006
Gmin = 1.89714e-007
Gmin = 2.03704e-008
Gmin = 2.18725e-009
Gmin = 2.34854e-010
Gmin = 2.52173e-011
Gmin = 2.70769e-012
Gmin = 2.90735e-013
Gmin = 0
Gmin stepping succeeded in finding the operating point.

.step run=2
.step run=3
.step run=4
.step run=5
.step run=6
.step run=7
.step run=8
.step run=9
.step run=10
.step run=11
.step run=12
.step run=13
.step run=14
.step run=15
.step run=16
.step run=17
.step run=18
.step run=19
.step run=20
.step run=21
.step run=22
.step run=23
.step run=24
.step run=25
.step run=26
.step run=27
.step run=28
.step run=29
.step run=30
.step run=31
.step run=32
.step run=33
.step run=34
.step run=35
.step run=36
.step run=37
.step run=38
.step run=39
.step run=40
.step run=41
.step run=42
.step run=43
.step run=44
.step run=45
.step run=46
.step run=47
.step run=48
.step run=49
.step run=50
.step run=51
.step run=52
.step run=53
.step run=54
.step run=55
.step run=56
.step run=57
.step run=58
.step run=59
.step run=60
.step run=61
.step run=62
.step run=63
.step run=64
.step run=65
.step run=66
.step run=67
.step run=68
.step run=69
.step run=70
.step run=71
.step run=72
.step run=73
.step run=74
.step run=75
.step run=76
.step run=77
.step run=78
.step run=79
.step run=80
.step run=81
.step run=82
.step run=83
.step run=84
.step run=85
.step run=86
.step run=87
.step run=88
.step run=89
.step run=90
.step run=91
.step run=92
.step run=93
.step run=94
.step run=95
.step run=96
.step run=97
.step run=98
.step run=99
.step run=100

Date: Thu Jul 04 20:29:06 2019
Total elapsed time: 342.409 seconds.

tnom = 27
temp = 80
method = trap
totiter = 4814
traniter = 0
tranpoints = 0
accept = 0
rejected = 0
matrix size = 358
fillins = 695
solver = Normal
Matrix Compiler1:    3281 opcodes  24.0/10.7/[9.2]
Matrix Compiler2: 42.69 KB object code size  19.8/10.5/[6.6]


