Circuit: * D:\Google Drive\Mestrado\Instrumentação\Instrumentação-Alunos\Trabalhos de Alunos\Guilherme\Projeto Final\simulations\ltspice\MC_Noise_AnalogRogowskiSignalProc.asc

Early termination of direct N-R iteration.
Direct Newton iteration failed to find .op point.  (Use ".option noopiter" to skip.)
Starting Gmin stepping
Increasing initial diagonal Gmin to 100
Gmin = 100
Gmin = 10.7374
Gmin = 1.15292
Gmin = 0.123794
Gmin = 0.0132923
Gmin = 0.00142725
vernier = 0.5
vernier = 0.25
vernier = 0.125
vernier = 0.0625
Gmin = 0.00101493
vernier = 0.03125
vernier = 0.015625
vernier = 0.0078125
Gmin = 0.000999238
vernier = 0.00390625
vernier = 0.00195313
vernier = 0.000976563
vernier = 0.000488281
Gmin = 0.000999969
Gmin = 0
Gmin stepping succeeded in finding the operating point.

.step run=1
.step run=2
.step run=3
.step run=4
.step run=5
.step run=6
.step run=7
.step run=8
.step run=9
.step run=10
.step run=11
.step run=12
.step run=13
.step run=14
.step run=15
.step run=16
.step run=17
.step run=18
.step run=19
.step run=20
.step run=21
.step run=22
.step run=23
.step run=24
.step run=25
.step run=26
.step run=27
.step run=28
.step run=29
.step run=30
.step run=31
.step run=32
.step run=33
.step run=34
.step run=35
.step run=36
.step run=37
.step run=38
.step run=39
.step run=40
.step run=41
.step run=42
.step run=43
.step run=44
.step run=45
.step run=46
.step run=47
.step run=48
.step run=49
.step run=50
.step run=51
.step run=52
.step run=53
.step run=54
.step run=55
.step run=56
.step run=57
.step run=58
.step run=59
.step run=60
.step run=61
.step run=62
.step run=63
.step run=64
.step run=65
.step run=66
.step run=67
.step run=68
.step run=69
.step run=70
.step run=71
.step run=72
.step run=73
.step run=74
.step run=75
.step run=76
.step run=77
.step run=78
.step run=79
.step run=80
.step run=81
.step run=82
.step run=83
.step run=84
.step run=85
.step run=86
.step run=87
.step run=88
.step run=89
.step run=90
.step run=91
.step run=92
.step run=93
.step run=94
.step run=95
.step run=96
.step run=97
.step run=98
.step run=99
.step run=100


Measurement: vruidorms
  step	INTEG(v(onoise))	FROM	TO
     1	0.00423775	0.1	1e+006
     2	0.00423776	0.1	1e+006
     3	0.00423777	0.1	1e+006
     4	0.00423776	0.1	1e+006
     5	0.00423775	0.1	1e+006
     6	0.00423777	0.1	1e+006
     7	0.00423776	0.1	1e+006
     8	0.00423777	0.1	1e+006
     9	0.00423607	0.1	1e+006
    10	0.00423776	0.1	1e+006
    11	0.00423777	0.1	1e+006
    12	0.00423776	0.1	1e+006
    13	0.00423775	0.1	1e+006
    14	0.00423777	0.1	1e+006
    15	0.00423777	0.1	1e+006
    16	0.00423776	0.1	1e+006
    17	0.00423777	0.1	1e+006
    18	0.00423777	0.1	1e+006
    19	0.00423777	0.1	1e+006
    20	0.00423775	0.1	1e+006
    21	0.00423777	0.1	1e+006
    22	0.00423775	0.1	1e+006
    23	0.00423777	0.1	1e+006
    24	0.00423778	0.1	1e+006
    25	0.00423777	0.1	1e+006
    26	0.00423777	0.1	1e+006
    27	0.00423776	0.1	1e+006
    28	0.00423777	0.1	1e+006
    29	0.00423776	0.1	1e+006
    30	0.00423776	0.1	1e+006
    31	0.00423776	0.1	1e+006
    32	0.00423777	0.1	1e+006
    33	0.00423776	0.1	1e+006
    34	0.00423776	0.1	1e+006
    35	0.00423777	0.1	1e+006
    36	0.00423776	0.1	1e+006
    37	0.00423776	0.1	1e+006
    38	0.00423776	0.1	1e+006
    39	0.00423776	0.1	1e+006
    40	0.00423776	0.1	1e+006
    41	0.00423776	0.1	1e+006
    42	0.00423776	0.1	1e+006
    43	0.00423776	0.1	1e+006
    44	0.00423775	0.1	1e+006
    45	0.00423777	0.1	1e+006
    46	0.00423776	0.1	1e+006
    47	0.00423775	0.1	1e+006
    48	0.00423774	0.1	1e+006
    49	0.00423776	0.1	1e+006
    50	0.00423775	0.1	1e+006
    51	0.00423777	0.1	1e+006
    52	0.00423777	0.1	1e+006
    53	0.00423776	0.1	1e+006
    54	0.00423776	0.1	1e+006
    55	0.00423775	0.1	1e+006
    56	0.00423777	0.1	1e+006
    57	0.00423777	0.1	1e+006
    58	0.00423776	0.1	1e+006
    59	0.00423777	0.1	1e+006
    60	0.00423775	0.1	1e+006
    61	0.00423777	0.1	1e+006
    62	0.00423762	0.1	1e+006
    63	0.00423775	0.1	1e+006
    64	0.00423775	0.1	1e+006
    65	0.00423776	0.1	1e+006
    66	0.00423777	0.1	1e+006
    67	0.00423777	0.1	1e+006
    68	0.00423776	0.1	1e+006
    69	0.00423776	0.1	1e+006
    70	0.00423776	0.1	1e+006
    71	0.00423776	0.1	1e+006
    72	0.00423776	0.1	1e+006
    73	0.00423775	0.1	1e+006
    74	0.00423777	0.1	1e+006
    75	0.00423775	0.1	1e+006
    76	0.00423776	0.1	1e+006
    77	0.00423539	0.1	1e+006
    78	0.00423776	0.1	1e+006
    79	0.00423777	0.1	1e+006
    80	0.00423775	0.1	1e+006
    81	0.00423776	0.1	1e+006
    82	0.00423775	0.1	1e+006
    83	0.00423777	0.1	1e+006
    84	0.00423777	0.1	1e+006
    85	0.00423777	0.1	1e+006
    86	0.00423775	0.1	1e+006
    87	0.00423777	0.1	1e+006
    88	0.00423776	0.1	1e+006
    89	0.00423775	0.1	1e+006
    90	0.00423776	0.1	1e+006
    91	0.00423776	0.1	1e+006
    92	0.00423772	0.1	1e+006
    93	0.00423776	0.1	1e+006
    94	0.00423776	0.1	1e+006
    95	0.00423776	0.1	1e+006
    96	0.00423776	0.1	1e+006
    97	0.00423776	0.1	1e+006
    98	0.00423776	0.1	1e+006
    99	0.00423776	0.1	1e+006
   100	0.00423776	0.1	1e+006


Date: Wed Jul 24 19:11:42 2019
Total elapsed time: 98.935 seconds.

tnom = 27
temp = 80
method = trap
totiter = 1765
traniter = 0
tranpoints = 0
accept = 0
rejected = 0
matrix size = 290
fillins = 795
solver = Normal
Matrix Compiler1:    3850 opcodes
Matrix Compiler2: 39.18 KB object code size  8.0/7.3/[3.9]


